44
10107774_CHEMBL2380981
C          2.06200        5.97830        0.00000
N          0.76290        6.72830        0.00000
C          0.76290        8.22830        0.00000
C         -0.53610        5.97830        0.00000
C         -1.83510        5.22830        0.00000
C         -2.44520        6.59860        0.00000
C         -3.93700        6.44180        0.00000
C         -4.24890        4.97460        0.00000
C         -2.94990        4.22460        0.00000
C         -1.83510        3.22090        0.00000
C         -0.40860        3.68440        0.00000
C          0.70620        2.68070        0.00000
C         -2.14700        1.75370        0.00000
C         -1.03230        0.75000        0.00000
C          0.39430        1.21350        0.00000
N          1.27600        0.00000        0.00000
C          2.77600       -0.00000        0.00000
C          0.39430       -1.21350        0.00000
C         -1.03230       -0.75000        0.00000
C         -2.24580       -1.63170        0.00000
N         -3.45930       -2.51340        0.00000
H          3.36100        5.22830        0.00000
H          2.81200        7.27730        0.00000
H          1.31200        4.67930        0.00000
H          0.76290        9.72830        0.00000
H          2.26290        8.22830        0.00000
H         -0.73710        8.22830        0.00000
H         -0.84760        6.71210        0.00000
H          0.36670        4.78040        0.00000
H         -0.90440        4.44740        0.00000
H         -2.75710        8.06580        0.00000
H         -1.72280        6.93550        0.00000
H         -5.42880        6.59860        0.00000
H         -3.93700        7.94180        0.00000
H         -4.85900        3.60430        0.00000
H         -5.67550        5.43810        0.00000
H         -3.83150        3.01110        0.00000
H          0.07980        5.10270        0.00000
H          2.13280        3.14430        0.00000
H         -3.57360        1.29020        0.00000
H          4.27600        0.00000        0.00000
H          2.77600       -1.50000        0.00000
H          2.77600        1.50000        0.00000
H          0.85780       -2.64010        0.00000
