45
CHEMBL270099_44457050
C         -1.50000        0.00000        0.00000
O         -0.75000        1.29900        0.00000
C         -1.50000        2.59810        0.00000
C         -0.75000        3.89710        0.00000
C         -1.50000        5.19620        0.00000
C         -0.75000        6.49520        0.00000
C          0.75000        6.49520        0.00000
C          1.50000        5.19620        0.00000
C          0.75000        3.89710        0.00000
S          1.50000        2.59810        0.00000
C          3.00000        2.59810        0.00000
C          3.00000        4.09810        0.00000
O          4.47720        3.83760        0.00000
C          5.44140        4.98670        0.00000
C          4.92840        6.39620        0.00000
N          3.45120        6.65670        0.00000
C          2.48700        5.50760        0.00000
C          3.00000        1.09810        0.00000
C          1.70100        0.34810        0.00000
C          1.70100       -1.15190        0.00000
C          3.00000       -1.90190        0.00000
C          4.29900       -1.15190        0.00000
C          4.29900        0.34810        0.00000
O         -3.00000        2.59810        0.00000
H         -2.25000       -1.29900        0.00000
H         -0.20100       -0.75000        0.00000
H         -2.79900        0.75000        0.00000
H         -3.00000        5.19620        0.00000
H         -1.50000        7.79420        0.00000
H          1.50000        7.79420        0.00000
H          2.27350        5.38900        0.00000
H          4.50000        2.59810        0.00000
H          1.50370        4.20280        0.00000
H          6.74040        5.73670        0.00000
H          6.40560        3.83760        0.00000
H          4.92840        7.89620        0.00000
H          6.40560        6.65670        0.00000
H          2.93810        8.06620        0.00000
H          1.04510        5.09420        0.00000
H          1.82950        6.85580        0.00000
H          0.40190        1.09810        0.00000
H          0.40190       -1.90190        0.00000
H          3.00000       -3.40190        0.00000
H          5.59810       -1.90190        0.00000
H          5.59810        1.09810        0.00000
