59
CHEMBL1187666
C          2.77600        0.00000        0.00000
N          1.27600        0.00000        0.00000
C          0.39430        1.21350        0.00000
C         -1.03230        0.75000        0.00000
C         -1.03230       -0.75000        0.00000
C          1.89430        1.38460        0.00000
C          2.64430        0.08550        0.00000
C          3.79340       -0.87870        0.00000
C          3.53290       -2.35590        0.00000
C          4.68200       -3.32010        0.00000
C          5.20290       -0.36560        0.00000
C          6.35200       -1.32980        0.00000
C          6.09150       -2.80700        0.00000
O          7.24060       -3.77120        0.00000
C          6.98010       -5.24840        0.00000
C          0.39430       -1.21350        0.00000
C          1.89430       -1.21350        0.00000
C          1.63380       -2.69070        0.00000
O          2.78290       -3.65490        0.00000
C          2.52240       -5.13210        0.00000
C          2.26190       -6.60930        0.00000
C          2.00150       -8.08660        0.00000
C          0.59190       -8.59960        0.00000
C          0.33150      -10.07680        0.00000
C          3.15050       -9.05070        0.00000
C          2.89010      -10.52790        0.00000
Br         4.03910      -11.49210        0.00000
C          1.48050      -11.04100        0.00000
N          1.22010      -12.51820        0.00000
O          0.29730       -3.37180        0.00000
H          4.27600        0.00000        0.00000
H          2.95880        1.48880        0.00000
H          2.95880       -1.48880        0.00000
H          0.68050        2.68600        0.00000
H         -2.52410        0.59320        0.00000
H         -1.34420        2.21720        0.00000
H         -1.34420       -2.21720        0.00000
H         -2.52410       -0.59320        0.00000
H          3.23080        2.06560        0.00000
H          1.81580        2.88250        0.00000
H          3.79340        1.04970        0.00000
H          2.28940       -3.19470        0.00000
H          4.60350       -4.81800        0.00000
H          5.46340        1.11160        0.00000
H          7.76150       -0.81680        0.00000
H          6.71960       -6.72560        0.00000
H          8.45730       -5.50890        0.00000
H          5.50290       -4.98800        0.00000
H          0.31570       -2.71150        0.00000
H          3.02630       -2.19770        0.00000
H          1.04520       -4.87170        0.00000
H          3.95690       -5.57070        0.00000
H          3.73920       -6.86980        0.00000
H          0.78470       -6.34890        0.00000
H         -0.55710       -7.63540        0.00000
H         -1.07810      -10.58980        0.00000
H          4.56010       -8.53770        0.00000
H         -0.18950      -13.03120        0.00000
H          2.36910      -13.48240        0.00000
