48
CHEMBL498564
C          2.25000       -6.49520        0.00000
N          3.00000       -5.19620        0.00000
C          2.25000       -3.89710        0.00000
C          1.50000       -2.59810        0.00000
C          0.75000       -1.29900        0.00000
C          1.50000        0.00000        0.00000
C          0.75000        1.29900        0.00000
C         -0.75000       -1.29900        0.00000
C         -1.50000        0.00000        0.00000
C         -0.75000        1.29900        0.00000
O         -1.50000        2.59810        0.00000
C         -0.75000        3.89710        0.00000
F          0.00000        5.19620        0.00000
F         -2.04900        4.64710        0.00000
F          0.54900        3.14710        0.00000
C          4.50000       -5.19620        0.00000
C          6.00000       -5.19620        0.00000
N          7.50000       -5.19620        0.00000
C          8.25000       -6.49520        0.00000
C          9.75000       -6.49520        0.00000
C         10.50000       -5.19620        0.00000
C          9.75000       -3.89710        0.00000
C          8.25000       -3.89710        0.00000
H          1.50000       -7.79420        0.00000
H          3.54900       -7.24520        0.00000
H          0.95100       -5.74520        0.00000
H          3.54900       -3.14710        0.00000
H          0.95100       -4.64710        0.00000
H          0.20100       -3.34810        0.00000
H          2.79900       -1.84810        0.00000
H          3.00000        0.00000        0.00000
H          1.50000        2.59810        0.00000
H         -1.50000       -2.59810        0.00000
H         -3.00000        0.00000        0.00000
H          4.50000       -3.69620        0.00000
H          4.50000       -6.69620        0.00000
H          5.81720       -3.70730        0.00000
H          5.81720       -6.68500        0.00000
H          8.51050       -7.97240        0.00000
H          6.91350       -7.17620        0.00000
H         11.15950       -7.00820        0.00000
H          9.48950       -7.97240        0.00000
H         11.64910       -4.23200        0.00000
H         11.64910       -6.16030        0.00000
H          9.48950       -2.41990        0.00000
H         11.15950       -3.38410        0.00000
H          6.91350       -3.21610        0.00000
H          8.51050       -2.41990        0.00000
