34
CHEMBL1199321
Cl        -2.94990        4.22460        0.00000
C         -1.83510        3.22090        0.00000
C         -0.40860        3.68440        0.00000
C          0.70620        2.68070        0.00000
C         -2.14700        1.75370        0.00000
C         -1.03230        0.75000        0.00000
C          0.39430        1.21350        0.00000
N          1.27600        0.00000        0.00000
C          0.39430       -1.21350        0.00000
C         -1.03230       -0.75000        0.00000
C         -2.24580       -1.63170        0.00000
C         -3.45930       -2.51340        0.00000
C         -2.38030       -3.55530        0.00000
C         -2.74320       -5.01080        0.00000
N         -4.18510       -5.42420        0.00000
C         -5.26410       -4.38230        0.00000
C         -4.90120       -2.92680        0.00000
H         -0.09670        5.15170        0.00000
H          2.13280        3.14430        0.00000
H         -3.57360        1.29020        0.00000
H          2.77600        0.00000        0.00000
H          0.85780       -2.64010        0.00000
H         -1.70210       -2.21470        0.00000
H         -3.12750       -0.41820        0.00000
H         -4.11690       -1.16520        0.00000
H         -1.01000       -4.16540        0.00000
H         -1.85730       -2.95370        0.00000
H         -2.58640       -6.50260        0.00000
H         -1.24690       -5.11540        0.00000
H         -4.54800       -6.87970        0.00000
H         -6.63440       -3.77220        0.00000
H         -6.10290       -5.62580        0.00000
H         -5.05800       -1.43500        0.00000
H         -6.39760       -2.82220        0.00000
