43
ZINC000066100376
C          5.20770        1.41530        0.00000
N          3.79810        1.92840        0.00000
C          3.53770        3.40560        0.00000
C          2.64910        0.96420        0.00000
C          1.50000        0.00000        0.00000
C          0.75000       -1.29900        0.00000
C         -0.75000       -1.29900        0.00000
C         -0.48950       -2.77620        0.00000
C         -1.63860       -3.74040        0.00000
C         -1.37810       -5.21760        0.00000
C          0.92000       -3.28930        0.00000
C          1.18050       -4.76650        0.00000
Cl         2.59000       -5.27950        0.00000
C          0.03140       -5.73070        0.00000
Cl         0.29190       -7.20790        0.00000
C          0.75000        1.29900        0.00000
C         -0.75000        1.29900        0.00000
C         -1.50000        0.00000        0.00000
C         -3.00000        0.00000        0.00000
C         -3.75000        1.29900        0.00000
C         -3.00000        2.59810        0.00000
C         -1.50000        2.59810        0.00000
H          6.61720        0.90230        0.00000
H          5.72070        2.82490        0.00000
H          4.69460        0.00580        0.00000
H          3.27720        4.88280        0.00000
H          5.01490        3.66600        0.00000
H          2.06040        3.14510        0.00000
H          3.61320       -0.18490        0.00000
H          2.21490        1.63270        0.00000
H          2.43070       -0.78100        0.00000
H          1.93390       -1.57230        0.00000
H          0.82630       -2.38990        0.00000
H         -2.15950       -1.81210        0.00000
H         -3.04810       -3.22740        0.00000
H         -2.52720       -6.18180        0.00000
H          2.17800       -2.47240        0.00000
H          0.48950        2.77620        0.00000
H          1.46030        1.66100        0.00000
H         -3.75000       -1.29900        0.00000
H         -5.25000        1.29900        0.00000
H         -3.75000        3.89710        0.00000
H         -0.75000        3.89710        0.00000
