49
ZINC000045374765
C          2.39070        1.00370        0.00000
C          1.27600        0.00000        0.00000
C          2.39070       -1.00370        0.00000
C          0.39430        1.21350        0.00000
C          0.39430       -1.21350        0.00000
C          0.70620       -2.68070        0.00000
C         -0.40860       -3.68440        0.00000
C         -1.83510       -3.22090        0.00000
C         -2.14700       -1.75370        0.00000
C         -1.03230       -0.75000        0.00000
N         -1.03230        0.75000        0.00000
C         -2.24580        1.63170        0.00000
C         -1.36410        2.84520        0.00000
C         -0.48250        4.05870        0.00000
N          0.39920        5.27230        0.00000
C          1.89100        5.11550        0.00000
O         -2.57770        3.72690        0.00000
C         -3.12750        0.41820        0.00000
C         -4.61930        0.57490        0.00000
C         -5.50100       -0.63860        0.00000
F         -6.99270       -0.48180        0.00000
C         -4.89080       -2.00890        0.00000
C         -3.39910       -2.16570        0.00000
F         -2.96050       -3.60020        0.00000
C         -2.51740       -0.95220        0.00000
H          3.50540        2.00740        0.00000
H          2.99230        0.48070        0.00000
H          1.53040        2.23240        0.00000
H          3.50540       -2.00740        0.00000
H          1.38700       -2.11840        0.00000
H          2.99230       -0.48070        0.00000
H         -0.04420        2.64800        0.00000
H          1.59220        2.11630        0.00000
H          2.13280       -3.14430        0.00000
H         -0.09670       -5.15170        0.00000
H         -2.81920       -4.35300        0.00000
H         -3.57360       -1.29020        0.00000
H         -3.45930        2.51340        0.00000
H         -0.05220        2.11800        0.00000
H         -1.57950        5.08180        0.00000
H          0.73110        3.17710        0.00000
H         -0.21090        6.64260        0.00000
H          3.38280        4.95870        0.00000
H          2.04780        6.60720        0.00000
H          1.73420        3.62370        0.00000
H         -2.60390        5.22670        0.00000
H         -5.22940        1.94530        0.00000
H         -5.77250       -3.22240        0.00000
H         -1.10790       -1.46530        0.00000
