68
ZINC000028892883
C          3.00000       -0.00000        0.00000
C          1.50000       -0.00000        0.00000
C          0.75000        1.29900        0.00000
C         -0.75000        1.29900        0.00000
C          0.75000       -1.29900        0.00000
C         -0.75000       -1.29900        0.00000
C         -1.50000        0.00000        0.00000
O         -3.00000        0.00000        0.00000
C         -3.75000        1.29900        0.00000
C         -5.04900        0.54900        0.00000
C         -6.34810       -0.20100        0.00000
N         -7.64710       -0.95100        0.00000
C         -8.94620       -0.20100        0.00000
C         -7.64710       -2.45100        0.00000
C         -2.45100        2.04900        0.00000
C         -1.15190        1.29900        0.00000
C          0.14710        2.04900        0.00000
C         -2.45100        3.54900        0.00000
C         -1.15190        4.29900        0.00000
C          0.14710        3.54900        0.00000
O          1.44620        4.29900        0.00000
C          1.44620        5.79900        0.00000
C          1.44620        7.29900        0.00000
C          1.44620        8.79900        0.00000
N          1.44620       10.29900        0.00000
C          2.74520       11.04900        0.00000
C          2.74520       12.54900        0.00000
C          1.44620       13.29900        0.00000
C          0.14710       12.54900        0.00000
C          0.14710       11.04900        0.00000
H          4.50000        0.00000        0.00000
H          3.00000        1.50000        0.00000
H          3.00000       -1.50000        0.00000
H          1.50000        2.59810        0.00000
H         -1.50000        2.59810        0.00000
H          1.50000       -2.59810        0.00000
H         -1.50000       -2.59810        0.00000
H         -4.50000        2.59810        0.00000
H         -5.79900        1.84810        0.00000
H         -4.29900       -0.75000        0.00000
H         -5.59810       -1.50000        0.00000
H         -7.09810        1.09810        0.00000
H        -10.24520        0.54900        0.00000
H         -9.69620       -1.50000        0.00000
H         -8.19620        1.09810        0.00000
H         -7.64710       -3.95100        0.00000
H         -9.14710       -2.45100        0.00000
H         -6.14710       -2.45100        0.00000
H         -0.78900       -0.15640        0.00000
H          1.58900        1.63570        0.00000
H         -3.75000        4.29900        0.00000
H         -1.15190        5.79900        0.00000
H         -0.05380        5.79900        0.00000
H          2.94620        5.79900        0.00000
H          2.94620        7.29900        0.00000
H         -0.05380        7.29900        0.00000
H         -0.04270        8.61620        0.00000
H          2.93500        8.61620        0.00000
H          4.22240       11.30950        0.00000
H          3.42620        9.71250        0.00000
H          3.25820       13.95860        0.00000
H          4.22240       12.28860        0.00000
H          0.48200       14.44810        0.00000
H          2.41030       14.44810        0.00000
H         -1.33010       12.28860        0.00000
H         -0.36590       13.95860        0.00000
H         -0.53390        9.71250        0.00000
H         -1.33010       11.30950        0.00000
