39
ZINC000045358461
C          3.16160        3.29000        0.00000
N          3.10930        4.78910        0.00000
C          1.78490        5.49330        0.00000
C          1.32130        4.06670        0.00000
C          0.85780        2.64010        0.00000
C          0.39430        1.21350        0.00000
C          1.27600        0.00000        0.00000
N          0.39430       -1.21350        0.00000
C         -1.03230       -0.75000        0.00000
C         -2.33130       -1.50000        0.00000
C         -3.63040       -0.75000        0.00000
C         -1.03230        0.75000        0.00000
C         -2.33130        1.50000        0.00000
C         -3.63040        0.75000        0.00000
C         -4.92940        1.50000        0.00000
N         -6.22840        2.25000        0.00000
C          1.73250        6.99240        0.00000
O          3.00460        7.78720        0.00000
C          4.32900        7.08300        0.00000
C          4.38140        5.58400        0.00000
H          3.21400        1.79090        0.00000
H          4.65590        3.15920        0.00000
H          2.17810        3.25560        0.00000
H          0.29950        5.70200        0.00000
H          1.99740        3.64420        0.00000
H         -0.10520        4.53020        0.00000
H          2.28440        2.17660        0.00000
H         -0.56880        3.10360        0.00000
H          2.77600        0.00000        0.00000
H          0.85780       -2.64010        0.00000
H         -2.33130       -3.00000        0.00000
H         -4.92940       -1.50000        0.00000
H         -2.33130        3.00000        0.00000
H          0.26530        6.68050        0.00000
H          1.17060        8.38310        0.00000
H          4.79250        8.50960        0.00000
H          5.81440        6.87430        0.00000
H          5.84860        5.89580        0.00000
H          5.10860        4.27200        0.00000
